targets/Michael_acceptor_1_original.pdb
 OpenBabel08232606543D

 39 42  0  0  0  0  0  0  0  0999 V2000
  -51.1840   -1.6760  -26.1070 C   0  0  0  0  0  0  0  0  0  0  0  0
  -50.1040   -2.5060  -26.4190 C   0  0  0  0  0  3  0  0  0  0  0  0
  -49.3330   -3.0760  -25.3970 C   0  0  0  0  0  0  0  0  0  0  0  0
  -49.6480   -2.7850  -24.0480 C   0  0  0  0  0  0  0  0  0  0  0  0
  -50.7330   -1.9620  -23.7380 C   0  0  0  0  0  3  0  0  0  0  0  0
  -51.5180   -1.4000  -24.7570 C   0  0  0  0  0  0  0  0  0  0  0  0
  -52.6400   -0.5860  -24.5170 N   0  0  0  0  0  0  0  0  0  0  0  0
  -53.2010   -0.0010  -23.3910 C   0  0  0  0  0  0  0  0  0  0  0  0
  -54.3180    0.7140  -23.6130 N   0  0  0  0  0  0  0  0  0  0  0  0
  -54.8980    1.2970  -22.5470 C   0  0  0  0  0  3  0  0  0  0  0  0
  -54.4220    1.1840  -21.2670 C   0  0  0  0  0  3  0  0  0  0  0  0
  -53.2890    0.4190  -21.1290 C   0  0  0  0  0  0  0  0  0  0  0  0
  -52.6720   -0.1670  -22.1770 N   0  0  0  0  0  0  0  0  0  0  0  0
  -53.2360   -0.4490  -25.3230 H   0  0  0  0  0  0  0  0  0  0  0  0
  -52.6610    0.2150  -19.8300 C   0  0  0  0  0  0  0  0  0  0  0  0
  -53.2100    0.7290  -18.6720 C   0  0  0  0  0  3  0  0  0  0  0  0
  -52.4040    0.3970  -17.6210 N   0  0  0  0  0  0  0  0  0  0  0  0
  -52.6460    0.7940  -16.2530 C   0  0  0  0  0  1  0  0  0  0  0  0
  -51.3290   -0.3450  -18.0600 C   0  0  0  0  0  0  0  0  0  0  0  0
  -50.2520   -0.9050  -17.3540 C   0  0  0  0  0  3  0  0  0  0  0  0
  -49.2740   -1.5920  -18.0770 C   0  0  0  0  0  3  0  0  0  0  0  0
  -49.3620   -1.7100  -19.4600 C   0  0  0  0  0  3  0  0  0  0  0  0
  -50.4390   -1.1500  -20.1550 C   0  0  0  0  0  3  0  0  0  0  0  0
  -51.4540   -0.4630  -19.4510 C   0  0  0  0  0  0  0  0  0  0  0  0
  -48.8180   -3.4070  -23.0920 N   0  0  0  0  0  0  0  0  0  0  0  0
  -47.6450   -2.9630  -22.5470 C   0  0  0  0  0  0  0  0  0  0  0  0
  -46.9970   -1.9730  -22.8620 O   0  0  0  0  0  0  0  0  0  0  0  0
  -49.1540   -4.3350  -22.8500 H   0  0  0  0  0  0  0  0  0  0  0  0
  -47.0760   -3.8700  -21.5090 C   0  0  0  0  0  3  0  0  0  0  0  0
  -47.7810   -4.7480  -20.7830 C   0  0  0  0  0  2  0  0  0  0  0  0
  -52.6630   -1.9110  -27.9740 C   0  0  0  0  0  1  0  0  0  0  0  0
  -51.9980   -1.0690  -27.0400 O   0  0  0  0  0  0  0  0  0  0  0  0
  -48.2070   -3.9230  -25.6630 N   0  0  0  0  0  0  0  0  0  0  0  0
  -47.1430   -3.1270  -26.2960 C   0  0  0  0  0  1  0  0  0  0  0  0
  -48.5860   -5.1500  -26.4070 C   0  0  0  0  0  2  0  0  0  0  0  0
  -48.0170   -6.4050  -25.7010 C   0  0  0  0  0  2  0  0  0  0  0  0
  -47.9170   -6.2670  -24.2340 N   0  0  0  0  0  0  0  0  0  0  0  0
  -48.9880   -6.9960  -23.5480 C   0  0  0  0  0  1  0  0  0  0  0  0
  -46.6150   -6.7560  -23.7710 C   0  0  0  0  0  1  0  0  0  0  0  0
  1  6  1  0  0  0  0
  2  1  2  0  0  0  0
  2  3  1  0  0  0  0
  3  4  2  0  0  0  0
  4  5  1  0  0  0  0
  4 25  1  0  0  0  0
  6  7  1  0  0  0  0
  6  5  2  0  0  0  0
  7  8  1  0  0  0  0
  8 13  1  0  0  0  0
  9  8  2  0  0  0  0
  9 10  1  0  0  0  0
 10 11  2  0  0  0  0
 11 12  1  0  0  0  0
 12 15  1  0  0  0  0
 13 12  2  0  0  0  0
 14  7  1  0  0  0  0
 15 24  1  0  0  0  0
 15 16  2  0  0  0  0
 16 17  1  0  0  0  0
 17 18  1  0  0  0  0
 19 17  1  0  0  0  0
 19 20  1  0  0  0  0
 21 20  2  0  0  0  0
 22 21  1  0  0  0  0
 23 22  2  0  0  0  0
 23 24  1  0  0  0  0
 24 19  2  0  0  0  0
 25 28  1  0  0  0  0
 25 26  1  0  0  0  0
 26 29  1  0  0  0  0
 27 26  2  0  0  0  0
 29 30  2  0  0  0  0
 31 32  1  0  0  0  0
 32  1  1  0  0  0  0
 33  3  1  0  0  0  0
 34 33  1  0  0  0  0
 35 36  1  0  0  0  0
 35 33  1  0  0  0  0
 36 37  1  0  0  0  0
 37 39  1  0  0  0  0
 37 38  1  0  0  0  0
M  END
